147
AlOH/MOR
Al   11.144774268066      6.608699574288     11.074311929500
Al    6.368509213174      1.737274264864      7.896621271200
Al    8.947791565673      5.431925468580     10.010296898200
H     7.384647754085      4.254907631826      8.566925365400
O    12.239805479864      3.521927136697      3.447797292200
O    12.546785441736      3.028669664655     10.890617196100
O     2.388527060524      0.501083946700      3.140723482100
O     2.282893635556      0.628189686517     10.758649482200
O     4.814857179190      1.662367590456      7.134544885800
O     4.562247810316      1.004930178573      0.187658719800
O     7.142614140815      3.193756825606      7.198974679900
O     6.613140349098      2.673350423306     14.739497839500
O     3.784116272060      5.535267431537      7.073103096600
O     3.838333925058      5.772377116201     14.622890572900
O     1.029807408440      4.491001770470      3.834616298400
O     1.145530754454      4.340023928885     11.366685956700
O     9.426158879672      0.328143229863      0.679988833700
O     8.122773240026     13.161002492953      8.244836455300
O    11.218944490244     10.789201534409      0.620348856500
O    11.125064782721     10.907722525207      8.053589126600
O    11.388915428728      8.428815313127      3.533638618900
O    11.165069070584      8.214155965804     11.552723045700
O     9.990971280484      6.269073904096      4.240639617500
O     9.540469492825      5.753812934962     11.649930803100
O     6.486442537531      9.089299363068      4.403703603500
O     6.834785386474      8.925132963841     11.827739617300
O     6.825349702349     11.450985483256     14.974949622600
O     6.433876094462     11.375726752894      7.333314779600
O     6.978689169208      2.396417794059      4.581107010000
O     6.959763608140      2.404081781354     12.109137606400
O     3.366718042423      5.481633061087      4.459935153000
O     3.409187155519      5.518490611293     11.993386200500
O     1.315549094193      5.023215587825     14.728461741000
O     1.150549369566      5.331806171657      7.471063307000
O    12.937326260604      3.747256487533      0.896596666300
O    12.762590040275      3.772767003546      8.345933123600
O     1.932153447017      0.988221061397      0.534477499600
O     2.561859812679      0.597235843839      8.086757482500
O     4.796457225655      0.938053088027      4.061074036600
O     4.828907242891      0.867980412673     11.578128594900
O     9.800068120423      5.936651840337      6.872681541800
O    10.107499909940      5.909733100510     14.258759382800
O     6.402882524163      8.746220836409      7.056391290300
O     6.433602642705      8.884809016555     14.469180994200
O     7.300510133802     11.518228170369      3.709105077500
O     7.191852631089     11.504971909660     11.352466657000
O     9.783946953774      0.460854783709      3.315048793100
O     9.833259263229      0.411851303108     10.801517592700
O    11.139030701843     11.044320235155      3.294703332600
O    11.621650783027     10.675704111255     10.682342744000
O    10.701639653770      8.332785281510      7.757401264000
O    11.095699663231      8.308303852130     14.804528237600
O     0.191491138297      1.736773262161      2.379352806400
O     0.371674267755      1.600080767918      9.183895824400
O     5.603965183092      4.464990251754      5.414730346900
O     5.578894703287      4.469973197557     13.071245154000
O     9.827905776490     12.729964140380      1.746511386700
O    10.212390655686     12.716816204579      9.788989339300
O     7.872597442295      7.158597432998      5.565286754600
O     7.894839827300      7.007037345029     13.292883045100
O    12.887889135632      4.472288642482      5.804987811000
O    12.976491516016      4.012313998657     13.298408601900
O     2.666814265708      1.470740826858      5.587689283800
O     2.834363517020      1.504023655075     13.176831337200
O     6.392167389855      1.633851058224      2.076077816600
O     6.266136528553      1.990402495410      9.605039349200
O     2.771181408299      5.121439198844      1.938704666700
O     2.860199611466      5.069578648775      9.468912452600
O     7.463079586436     13.232916691756      5.733846267200
O     7.204150415472     13.388457720123     13.194909517600
O    10.745953737579      9.922967860891      5.634521380700
O    10.596879189626     10.288347778141     13.106155261500
O    10.788852254692      6.520983479419      1.754033951800
O    10.358401305724      6.294029254952      9.392305412400
O     7.007141424175      9.625196227321      1.894049759300
O     7.031028246791      9.733954435717      9.368131101400
O    12.597477514064      6.129036878296      3.717663684500
O    12.509349787749      5.653300960246     11.263637325400
O     6.928798184264      0.011536602783     14.993057833200
O     7.316426139699      0.336524869679      7.552415118800
O     5.513959252323     13.418612666599      3.877664590100
O     5.517979882387     13.514872888647     11.124612514500
O    12.631248052580      6.167884898700     14.866660721400
O    12.366085736248      6.282980114258      7.659382691200
O     3.256661746939      3.258900717612      0.104069658100
O     2.630508648818      3.168869177818      7.595268214200
O     8.866156019894      9.728619433960      0.011816883700
O     8.713488181086     10.024035000764      7.316122490100
O     3.213248908470      3.001019731694      3.460424991300
O     3.411156851267      3.022116007675     11.053065563000
O     8.993587775536      9.486960103129      3.647543167500
O     9.158163224050      9.773344080665     10.896172783100
O    11.277728726711      1.854183922644      1.642321607800
O    11.340712868715      1.657953350424      9.007663595700
O    -1.136286852844     12.705238979956      1.804289491500
O    -0.831248396565     12.523848920236      9.255427760800
O     8.266935340494      4.547696319593      5.216831328900
O     8.184900625560      4.315488337051     13.409144964400
O     5.182422550678      7.077448535723      5.450871692600
O     5.277138059527      7.113412405432     12.881844682600
O     7.564299282330      4.823153021958      9.372935933400
Si    2.783961715849      4.784738301189      0.357389410200
Si    6.125519158274      1.326573913911      0.506774640100
Si   -0.528430778712      4.662168666926      4.210279085300
Si   -0.429539178727      4.274473818471     11.707573772000
Si    7.447999946681      9.944294327303      3.422722075200
Si   11.189368264591      6.833690409784      3.306294989800
Si   10.438371576373      9.784217193382     14.642785580400
Si    6.854570362247     12.961197198744      7.230025906700
Si    6.741451637770     13.048263344160     14.709137307300
Si    3.232073568341      1.721553612480      7.109184381900
Si    3.156024470537      1.682692051462     14.753732154300
Si   -0.406407434437      4.930232194268      7.318780162800
Si   -0.271108383320      4.724387786395     14.706044196700
Si    2.598280448661      4.504366356089      3.430499897000
Si    2.704855441565      4.479004786825     10.967644659100
Si    6.336763800453      1.229433551980      3.656432106700
Si    6.308062721543      1.329336199084     11.044912363700
Si   10.551407832485      9.731828559382      4.034932747500
Si   10.642092856789      9.735971987142     11.573443883700
Si    7.072051173850     13.050538167244      4.179858492700
Si    7.000358365563     13.095195110881     11.612573234300
Si    7.291760723376      9.950699037533      0.335857756800
Si    7.147114737706      9.997468316891      7.773242194500
Si   11.157385765514      6.748465787817      0.188169233200
Si   12.576902050881      2.705482299367      2.079666425500
Si   12.691219533041      2.496862065708      9.353070956100
Si    1.280048441008      0.604073853704      1.967083205700
Si    1.532848656840      0.464686777356      9.323040756100
Si    6.982876142469      3.625485749472      5.646443370100
Si    6.799239891568      3.437555573386     13.327943303600
Si    4.525710126222      5.703455393002     13.147341680800
Si   10.511433489593      0.445784080778      1.864515057600
Si   10.715283568890      0.213183420441      9.445383790900
Si   11.165996326035     11.824259578232      1.868433998700
Si   11.435148868626     11.709448715559      9.437936301300
Si    8.962545109069      5.973685418519      5.448274080300
Si    8.883698907224      5.744334505446     13.236741586200
Si    6.484544657813      8.009245860269      5.613259999100
Si    6.597937154958      8.000187189774     13.125299514000
Si   10.833253286333      6.740029985547      7.814819006400
Si    4.495196577720      5.622171089591      5.612704440400
Si   10.307248323477      9.820709147021      7.187593234100
Si    3.272471409852      1.487395781580      4.085488589200
Si    3.338754774465      1.499230277862     11.631492260300
Si    7.554274400491     10.015260683155     10.868950406800
Si    2.624184837646      4.753459483784      7.895299942400

